Version 4
SHEET 1 1500 696
WIRE 176 16 32 16
WIRE 368 16 240 16
WIRE 624 16 368 16
WIRE 944 16 624 16
WIRE 944 96 944 16
WIRE 32 112 32 16
WIRE 368 160 368 16
WIRE 624 160 624 16
WIRE 944 192 944 176
WIRE 1408 192 944 192
WIRE 1488 192 1408 192
WIRE 944 224 944 192
WIRE 784 272 752 272
WIRE 880 272 864 272
WIRE 368 320 368 240
WIRE 624 368 624 240
WIRE 944 368 944 320
WIRE 944 368 624 368
WIRE 1408 368 944 368
WIRE 1488 368 1408 368
WIRE 624 400 624 368
WIRE 368 448 368 384
WIRE 560 448 368 448
WIRE 368 528 368 448
WIRE 752 528 752 272
WIRE 368 656 368 608
WIRE 624 656 624 496
WIRE 752 656 752 608
FLAG 32 192 0
FLAG 368 656 0
FLAG 624 656 0
FLAG 1408 192 5V_REG_EN
FLAG 1408 368 3V3_REG_EN
FLAG 752 656 0
SYMBOL voltage 32 96 R0
WINDOW 123 0 0 Left 0
WINDOW 39 0 0 Left 0
SYMATTR InstName V1
SYMATTR Value PULSE(0 15 0.5 0.01 0.01 0.5)
SYMBOL schottky 176 32 R270
WINDOW 0 32 32 VTop 2
WINDOW 3 0 32 VBottom 2
SYMATTR InstName D1
SYMATTR Value MBRS360
SYMATTR Description Diode
SYMATTR Type diode
SYMBOL res 352 144 R0
SYMATTR InstName R1
SYMATTR Value 10k
SYMBOL res 608 144 R0
SYMATTR InstName R2
SYMATTR Value 47k
SYMBOL zener 384 384 R180
WINDOW 0 24 64 Left 2
WINDOW 3 24 0 Left 2
SYMATTR InstName D2
SYMATTR Value BZX84C10L
SYMATTR Description Diode
SYMATTR Type diode
SYMBOL res 352 512 R0
SYMATTR InstName R3
SYMATTR Value 10k
SYMBOL npn 560 400 R0
SYMATTR InstName Q1
SYMATTR Value BC817-25
SYMBOL npn 880 224 R0
SYMATTR InstName Q2
SYMATTR Value BC817-25
SYMBOL res 928 80 R0
SYMATTR InstName R4
SYMATTR Value 47k
SYMBOL res 880 256 R90
WINDOW 0 0 56 VBottom 2
WINDOW 3 32 56 VTop 2
SYMATTR InstName R5
SYMATTR Value 10k
SYMBOL voltage 752 512 R0
SYMATTR InstName V2
SYMATTR Value 3.3v
TEXT 0 680 Left 2 !.tran 0 0.52 0.49 0.001
